Berlin Gridlabd Model/Berlin_Gridlabd_Model_NR.glm
//IEEE 8500 node test system.
//  Generated 16-Jul-2020 17:04:11 using Matlab 9.8.0.1380330 (R2020a) Update 2.

clock {
     starttime '2012-04-08 00:00:00';
     stoptime '2014-05-08 17:00:00';
}

module powerflow {
 	solver_method NR;
	 default_maximum_voltage_error 1e-10;
	 NR_superLU_procs 1;
};
module residential {
    implicit_enduses NONE;
	ANSI_voltage_check FALSE;
}
module climate;
module tape;

module market;

object auction {
    name Market_1;
    special_mode NONE;
    unit kW;
    period 1800;
    init_price 30;
    init_stdev 5;
    capacity_reference_object HVMV_Sub;
    capacity_reference_property power_out_real;
    max_capacity_reference_bid_quantity 1200;
    object player {
        property capacity_reference_bid_price;
        file Market/ExamplePrices2.player;
        loop 150;
 };
    warmup 0;
    transaction_log_file Market/log_file.csv;
    curve_log_file Market/curve.csv;
    curve_log_info EXTRA;
}

//object auction {
//    name Market_1;
//    period 900;
//    special_mode BUYERS_ONLY;
//    unit kW;
//    capacity_reference_object HVMV_Sub;
//    capacity_reference_property power_out_real;
//    max_capacity_reference_bid_quantity 1200; //Defaults to 1200 kW
//    init_price 0.10;
//    init_stdev 0.03;
//    warmup 0;
//     object player {
//         file Market/ExamplePrices2.player;
//         loop 10;
//         property capacity_reference_bid_price;
//     };    
//}

#set minimum_timestep=1800;
#set profiler=1;
#set relax_naming_rules=1;
#set suppress_repeat_messages=1;
#set savefile="8500_balanced_NR.xml";
// Transformer and configuration at feeder

object transformer_configuration:27500 {
     connect_type DELTA_GWYE;
     name trans_config_1;
     install_type PADMOUNT;
     power_rating 27500kVA;
     primary_voltage 115.0kV;
     secondary_voltage 12.47kV;
     reactance 0.15510;
     resistance 0.01344;
}

object transformer {
     phases ABCN;
     name "HVMV_Sub";
     from "HVMV_Sub_HSB";
     to "regxfmr_HVMV_Sub_LSB";
     configuration trans_config_1;

   object recorder {
          file strom/Netz.csv;
          interval 1800;
          limit 1440;
          property power_out_real;
     };
}

object node {
     phases ABCN;
     name "regxfmr_HVMV_Sub_LSB";
     nominal_voltage 7199.558;
}

object node {
     phases ABCN;
     name "HVMV_Sub_HSB";
     bustype SWING;
     voltage_A 69512-0.7d;
     voltage_B 69557-120.7d;
     voltage_C 69595+119.3d;
     nominal_voltage 69512;
}

object node {
     phases ABCN;
     name "HVMV_Sub_48332";
     nominal_voltage 7199.558;
}

object regulator {
     name "FEEDER_REG";
     phases ABCN;
     from "regxfmr_HVMV_Sub_LSB";
     to "_HVMV_Sub_LSB";
     configuration reg_config_1;
}

object regulator_configuration {
     connect_type 1;
     name reg_config_1;
     Control OUTPUT_VOLTAGE;
     band_center 7500.0;
     band_width 120.0;
     time_delay 60.0;
     raise_taps 16;
     lower_taps 16;
     regulation 0.1;
     Type B;
}

// Center-tap transformer configurations

object transformer_configuration {
     name "1515A";
     connect_type SINGLE_PHASE_CENTER_TAPPED;
     install_type POLETOP;
     primary_voltage 7200.0V;
     secondary_voltage 120.0V;
     power_rating 15.0kVA;
     powerA_rating 15.0kVA;
     impedance 0.006000+0.013600j;
     impedance1 0.012000+0.006800j;
     impedance2 0.012000+0.006800j;
     shunt_impedance 1728000+691200j;
}

object transformer_configuration {
     name "2525B";
     connect_type SINGLE_PHASE_CENTER_TAPPED;
     install_type POLETOP;
     primary_voltage 7200.0;
     secondary_voltage 120.0;
     power_rating 25.0;
     powerB_rating 25.0;
     impedance 0.006+0.0136j;
     impedance1 0.012+0.0204j;
     impedance2 0.012+0.0204j;
     shunt_impedance 1036800+414720j;
}

object transformer_configuration {
     name "1515C";
     connect_type SINGLE_PHASE_CENTER_TAPPED;
     install_type POLETOP;
     primary_voltage 7200.0;
     secondary_voltage 120.0;
     power_rating 15.0;
     powerC_rating 15.0;
     impedance 0.006+0.0136j;
     impedance1 0.012+0.0204j;
     impedance2 0.012+0.0204j;
     shunt_impedance 1728000+691200j;
}

object transformer_configuration {
     name "3838A";
     connect_type SINGLE_PHASE_CENTER_TAPPED;
     install_type POLETOP;
     primary_voltage 7200.0;
     secondary_voltage 120.0;
     power_rating 37.5;
     powerA_rating 37.5;
     impedance 0.006+0.0136j;
     impedance1 0.012+0.0204j;
     impedance2 0.012+0.0204j;
     shunt_impedance 691200+276480j;
}

object transformer_configuration {
     name "1515B";
     connect_type SINGLE_PHASE_CENTER_TAPPED;
     install_type POLETOP;
     primary_voltage 7200.0;
     secondary_voltage 120.0;
     power_rating 15.0;
     powerB_rating 15.0;
     impedance 0.006+0.0136j;
     impedance1 0.012+0.0204j;
     impedance2 0.012+0.0204j;
     shunt_impedance 1728000+691200j;
}

object transformer_configuration {
     name "5050A";
     connect_type SINGLE_PHASE_CENTER_TAPPED;
     install_type POLETOP;
     primary_voltage 7200.0;
     secondary_voltage 120.0;
     power_rating 50.0;
     powerA_rating 50.0;
     impedance 0.006+0.0136j;
     impedance1 0.012+0.0204j;
     impedance2 0.012+0.0204j;
     shunt_impedance 518400+207360j;
}

object transformer_configuration {
     name "5050B";
     connect_type SINGLE_PHASE_CENTER_TAPPED;
     install_type POLETOP;
     primary_voltage 7200.0;
     secondary_voltage 120.0;
     power_rating 50.0;
     powerB_rating 50.0;
     impedance 0.006+0.0136j;
     impedance1 0.012+0.0204j;
     impedance2 0.012+0.0204j;
     shunt_impedance 518400+207360j;
}

object transformer_configuration {
     name "5050C";
     connect_type SINGLE_PHASE_CENTER_TAPPED;
     install_type POLETOP;
     primary_voltage 7200.0;
     secondary_voltage 120.0;
     power_rating 50.0;
     powerC_rating 50.0;
     impedance 0.006+0.0136j;
     impedance1 0.012+0.0204j;
     impedance2 0.012+0.0204j;
     shunt_impedance 518400+207360j;
}

object transformer_configuration {
     name "1010A";
     connect_type SINGLE_PHASE_CENTER_TAPPED;
     install_type POLETOP;
     primary_voltage 7200.0;
     secondary_voltage 120.0;
     power_rating 10.0;
     powerA_rating 10.0;
     impedance 0.006+0.0136j;
     impedance1 0.012+0.0204j;
     impedance2 0.012+0.0204j;
     shunt_impedance 2592000+1036800j;
}

object transformer_configuration {
     name "1010B";
     connect_type SINGLE_PHASE_CENTER_TAPPED;
     install_type POLETOP;
     primary_voltage 7200.0;
     secondary_voltage 120.0;
     power_rating 10.0;
     powerB_rating 10.0;
     impedance 0.006+0.0136j;
     impedance1 0.012+0.0204j;
     impedance2 0.012+0.0204j;
     shunt_impedance 2592000+1036800j;
}

object transformer_configuration {
     name "2525A";
     connect_type SINGLE_PHASE_CENTER_TAPPED;
     install_type POLETOP;
     primary_voltage 7200.0;
     secondary_voltage 120.0;
     power_rating 25.0;
     powerA_rating 25.0;
     impedance 0.006+0.0136j;
     impedance1 0.012+0.0204j;
     impedance2 0.012+0.0204j;
     shunt_impedance 1036800+414720j;
}

object transformer_configuration {
     name "1010C";
     connect_type SINGLE_PHASE_CENTER_TAPPED;
     install_type POLETOP;
     primary_voltage 7200.0;
     secondary_voltage 120.0;
     power_rating 10.0;
     powerC_rating 10.0;
     impedance 0.006+0.0136j;
     impedance1 0.012+0.0204j;
     impedance2 0.012+0.0204j;
     shunt_impedance 2592000+1036800j;
}

object transformer_configuration {
     name "2525C";
     connect_type SINGLE_PHASE_CENTER_TAPPED;
     install_type POLETOP;
     primary_voltage 7200.0;
     secondary_voltage 120.0;
     power_rating 25.0;
     powerC_rating 25.0;
     impedance 0.006+0.0136j;
     impedance1 0.012+0.0204j;
     impedance2 0.012+0.0204j;
     shunt_impedance 1036800+414720j;
}

object transformer_configuration {
     name "7575C";
     connect_type SINGLE_PHASE_CENTER_TAPPED;
     install_type POLETOP;
     primary_voltage 7200.0;
     secondary_voltage 120.0;
     power_rating 75.0;
     powerC_rating 75.0;
     impedance 0.006+0.0136j;
     impedance1 0.012+0.0204j;
     impedance2 0.012+0.0204j;
     shunt_impedance 345600+138240j;
}

object transformer_configuration {
     name "3838C";
     connect_type SINGLE_PHASE_CENTER_TAPPED;
     install_type POLETOP;
     primary_voltage 7200.0;
     secondary_voltage 120.0;
     power_rating 37.5;
     powerC_rating 37.5;
     impedance 0.006+0.0136j;
     impedance1 0.012+0.0204j;
     impedance2 0.012+0.0204j;
     shunt_impedance 691200+276480j;
}

object transformer_configuration {
     name "55B";
     connect_type SINGLE_PHASE_CENTER_TAPPED;
     install_type POLETOP;
     primary_voltage 7200.0;
     secondary_voltage 120.0;
     power_rating 5.0;
     powerB_rating 5.0;
     impedance 0.006+0.0136j;
     impedance1 0.012+0.0204j;
     impedance2 0.012+0.0204j;
     shunt_impedance 5184000+2073600j;
}

object transformer_configuration {
     name "3838B";
     connect_type SINGLE_PHASE_CENTER_TAPPED;
     install_type POLETOP;
     primary_voltage 7200.0;
     secondary_voltage 120.0;
     power_rating 37.5;
     powerB_rating 37.5;
     impedance 0.006+0.0136j;
     impedance1 0.012+0.0204j;
     impedance2 0.012+0.0204j;
     shunt_impedance 691200+276480j;
}

object transformer_configuration {
     name "7575A";
     connect_type SINGLE_PHASE_CENTER_TAPPED;
     install_type POLETOP;
     primary_voltage 7200.0;
     secondary_voltage 120.0;
     power_rating 75.0;
     powerA_rating 75.0;
     impedance 0.006+0.0136j;
     impedance1 0.012+0.0204j;
     impedance2 0.012+0.0204j;
     shunt_impedance 345600+138240j;
}

object transformer_configuration {
     name "7575B";
     connect_type SINGLE_PHASE_CENTER_TAPPED;
     install_type PADMOUNT;
     primary_voltage 7200.0;
     secondary_voltage 120.0;
     power_rating 75.0;
     powerB_rating 75.0;
     impedance 0.006+0.0136j;
     impedance1 0.012+0.0204j;
     impedance2 0.012+0.0204j;
     shunt_impedance 345600+138240j;
     //shunt_impedance 34560+13824j;
}

object transformer_configuration {
     name "55A";
     connect_type SINGLE_PHASE_CENTER_TAPPED;
     install_type POLETOP;
     primary_voltage 7200.0;
     secondary_voltage 120.0;
     power_rating 5.0;
     powerA_rating 5.0;
     impedance 0.006+0.0136j;
     impedance1 0.012+0.0204j;
     impedance2 0.012+0.0204j;
     shunt_impedance 5184000+2073600j;
}

object transformer_configuration {
     name "250250A";
     connect_type SINGLE_PHASE_CENTER_TAPPED;
     install_type POLETOP;
     primary_voltage 7200.0;
     secondary_voltage 120.0;
     power_rating 250.0;
     powerA_rating 250.0;
     impedance 0.006+0.0136j;
     impedance1 0.012+0.0204j;
     impedance2 0.012+0.0204j;
     shunt_impedance 103680+41472j;
}

object transformer_configuration {
     name "250250B";
     connect_type SINGLE_PHASE_CENTER_TAPPED;
     install_type POLETOP;
     primary_voltage 7200.0;
     secondary_voltage 120.0;
     power_rating 250.0;
     powerB_rating 250.0;
     impedance 0.006+0.0136j;
     impedance1 0.012+0.0204j;
     impedance2 0.012+0.0204j;
     shunt_impedance 103680+41472j;
}

object transformer_configuration {
     name "250250C";
     connect_type SINGLE_PHASE_CENTER_TAPPED;
     install_type POLETOP;
     primary_voltage 7200.0;
     secondary_voltage 120.0;
     power_rating 250.0;
     powerC_rating 250.0;
     impedance 0.006+0.0136j;
     impedance1 0.012+0.0204j;
     impedance2 0.012+0.0204j;
     shunt_impedance 103680+41472j;
}

object transformer_configuration {
     name "100100B";
     connect_type SINGLE_PHASE_CENTER_TAPPED;
     install_type POLETOP;
     primary_voltage 7200.0;
     secondary_voltage 120.0;
     power_rating 100.0;
     powerB_rating 100.0;
     impedance 0.006+0.0136j;
     impedance1 0.012+0.0204j;
     impedance2 0.012+0.0204j;
     shunt_impedance 259200+103680j;
}

// Triplex Node Objects with loads

class player {
      double value;
}
//Step1
object node {
phases ABC;
name "node_1";
nominal_voltage 7199.558;
}

object transformer { 
     name transformer_1; 
     phases BS;
     from "node_1";
     to "tnode_1";
     configuration "7575B";
}
object triplex_node {
     name "tnode_1";
     nominal_voltage 120;
     phases BS;

}

//Step3
     // Converted from load: 3890.0+974.9j
object recorder {
     name "Recorder1";
     parent "meter_1";
     interval 1800;
     property measured_real_energy,measured_power,measured_real_power,measured_demand,monthly_bill,price,first_tier_price,price_base;
     file strom/strom_1.csv;
}
object triplex_line { 
     name "tline_1";  
     phases BS;
     from "tnode_1";
     to "meter_1";
     length 15;
     configuration "4/0Triplex";
}
object triplex_meter {  
     name "meter_1";
     bill_mode HOURLY;
     power_market Market_1;
     bill_day 1;
     monthly_fee 30;
     phases BS;
     voltage_1 120; 
     voltage_2 120;
     voltage_N 0;    
     nominal_voltage 120;  
} 
//Step5
object house {
  parent "meter_1";
  name "house_1";

  heating_system_type NONE;
  cooling_system_type NONE;

  	
  object ZIPload {
         name "house1_load";
         base_power LOAD1_player.value;
  };

  }

object player {
name LOAD1_player;
file player/Load_profile_1.player;
}

object node {
phases ABC;
name "node_2";
nominal_voltage 7199.558;
}

object transformer { 
     name transformer_2; 
     phases BS;
     from "node_2";
     to "tnode_2";
     configuration "7575B";
}
object triplex_node {
     name "tnode_2";
     nominal_voltage 120;
     phases BS;

}

//Step3
     // Converted from load: 5840.0+1463.6j
object recorder {
     name "Recorder2";
     parent "meter_2";
     interval 1800;
     property measured_real_energy,measured_power,measured_real_power,measured_demand,monthly_bill,price;
     file strom/strom_2.csv;
}
object triplex_line { 
     name "tline_2";  
     phases BS;
     from "tnode_2";
     to "meter_2";
     length 15;
     configuration "4/0Triplex";
}
object triplex_meter {  
     name "meter_2";
     phases BS;
     bill_mode HOURLY;
     power_market Market_1;
     bill_day 1;
     voltage_1 120; 
     voltage_2 120;
     voltage_N 0;    
     nominal_voltage 120;  
} 
//Step5
object house {
  parent "meter_2";
  name "house_2";

  heating_system_type NONE;
  cooling_system_type NONE;
  	
  object ZIPload {
         name "house2_load";
         base_power LOAD2_player.value;
  };

  }

object player {
name LOAD2_player;
file player/Load_profile_2.player;
}

object node {
phases ABC;
name "node_3";
nominal_voltage 7199.558;
}

object transformer { 
     name transformer_3; 
     phases CS;
     from "node_3";
     to "tnode_3";
     configuration "7575C";
}
object triplex_node {
     name "tnode_3";
     nominal_voltage 120;
     phases CS;

}

//Step3
     // Converted from load: 6100.0+1528.8j
object recorder {
     name "Recorder3";
     parent "meter_3";
     interval 1800;
     property measured_real_energy,measured_power,measured_real_power,measured_demand,monthly_bill,price;
     file strom/strom_3.csv;
}
object triplex_line { 
     name "tline_3";  
     phases CS;
     from "tnode_3";
     to "meter_3";
     length 15;
     configuration "4/0Triplex";
}
object triplex_meter {  
     name "meter_3";
     phases CS;
     bill_mode HOURLY;
     power_market Market_1;
     bill_day 1;
     voltage_1 120; 
     voltage_2 120;
     voltage_N 0;    
     nominal_voltage 120;  
} 
//Step5
object house {
  parent "meter_3";
  name "house_3";

  heating_system_type NONE;
  cooling_system_type NONE;
  	
  object ZIPload {
         name "house3_load";
         base_power LOAD3_player.value;
  };

  }

object player {
name LOAD3_player;
file player/Load_profile_3.player;
}

object node {
phases ABC;
name "node_4";
nominal_voltage 7199.558;
}

object transformer { 
     name transformer_4; 
     phases CS;
     from "node_4";
     to "tnode_4";
     configuration "7575C";
}
object triplex_node {
     name "tnode_4";
     nominal_voltage 120;
     phases CS;

}

//Step3
     // Converted from load: 6100.0+1528.8j
object recorder {
     name "Recorder4";
     parent "meter_4";
     interval 1800;
     property measured_real_energy,measured_power,measured_real_power,measured_demand,monthly_bill,price;
     file strom/strom_4.csv;
}
object triplex_line { 
     name "tline_4";  
     phases CS;
     from "tnode_4";
     to "meter_4";
     length 15;
     configuration "4/0Triplex";
}
object triplex_meter {  
     name "meter_4";
     phases CS;
     bill_mode HOURLY;
     power_market Market_1;
     bill_day 1;
     voltage_1 120; 
     voltage_2 120;
     voltage_N 0;    
     nominal_voltage 120;  
} 
//Step5
object house {
  parent "meter_4";
  name "house_4";

  heating_system_type NONE;
  cooling_system_type NONE;
  	
  object ZIPload {
         name "house4_load";
         base_power LOAD4_player.value;
  };

  }

object player {
name LOAD4_player;
file player/Load_profile_4.player;
}

object node {
phases ABC;
name "node_5";
nominal_voltage 7199.558;
}

object transformer { 
     name transformer_5; 
     phases AS;
     from "node_5";
     to "tnode_5";
     configuration "7575A";
}
object triplex_node {
     name "tnode_5";
     nominal_voltage 120;
     phases AS;

}

//Step3
     // Converted from load: 5320.0+1333.3j
object recorder {
     name "Recorder5";
     parent "meter_5";
     interval 1800;
     property measured_real_energy,measured_power,measured_real_power,measured_demand,monthly_bill,price;
     file strom/strom_5.csv;
}
object triplex_line { 
     name "tline_5";  
     phases AS;
     from "tnode_5";
     to "meter_5";
     length 15;
     configuration "4/0Triplex";
}
object triplex_meter {  
     name "meter_5";
     phases AS;
     bill_mode HOURLY;
     power_market Market_1;
     bill_day 1;
     voltage_1 120; 
     voltage_2 120;
     voltage_N 0;    
     nominal_voltage 120;  
} 
//Step5
object house {
  parent "meter_5";
  name "house_5";

  heating_system_type NONE;
  cooling_system_type NONE;
  	
  object ZIPload {
         name "house5_load";
         base_power LOAD5_player.value;
  };

  }

object player {
name LOAD5_player;
file player/Load_profile_5.player;
}

object node {
phases ABC;
name "node_6";
nominal_voltage 7199.558;
}

object transformer { 
     name transformer_6; 
     phases AS;
     from "node_6";
     to "tnode_6";
     configuration "7575A";
}
object triplex_node {
     name "tnode_6";
     nominal_voltage 120;
     phases AS;

}

//Step3
     // Converted from load: 17740.0+4446.1j
object recorder {
     name "Recorder6";
     parent "meter_6";
     interval 1800;
     property measured_real_energy,measured_power,measured_real_power,measured_demand,monthly_bill,price;
     file strom/strom_6.csv;
}
object triplex_line { 
     name "tline_6";  
     phases AS;
     from "tnode_6";
     to "meter_6";
     length 15;
     configuration "4/0Triplex";
}
object triplex_meter {  
     name "meter_6";
     phases AS;
     bill_mode HOURLY;
     power_market Market_1;
     bill_day 1;
     voltage_1 120; 
     voltage_2 120;
     voltage_N 0;    
     nominal_voltage 120;  
} 
//Step5
object house {
  parent "meter_6";
  name "house_6";

  heating_system_type NONE;
  cooling_system_type NONE;
  	
  object ZIPload {
         name "house6_load";
         base_power LOAD6_player.value;
  };

  }

object player {
name LOAD6_player;
file player/Load_profile_6.player;
}

object node {
phases ABC;
name "node_7";
nominal_voltage 7199.558;
}

object transformer { 
     name transformer_7; 
     phases BS;
     from "node_7";
     to "tnode_7";
     configuration "7575B";
}
object triplex_node {
     name "tnode_7";
     nominal_voltage 120;
     phases BS;

}

//Step3
     // Converted from load: 9730.0+2438.6j
object recorder {
     name "Recorder7";
     parent "meter_7";
     interval 1800;
     property measured_real_energy,measured_power,measured_real_power,measured_demand,monthly_bill,price;
     file strom/strom_7.csv;
}
object triplex_line { 
     name "tline_7";  
     phases BS;
     from "tnode_7";
     to "meter_7";
     length 15;
     configuration "4/0Triplex";
}
object triplex_meter {  
     name "meter_7";
     phases BS;
     bill_mode HOURLY;
     power_market Market_1;
     bill_day 1;
     voltage_1 120; 
     voltage_2 120;
     voltage_N 0;    
     nominal_voltage 120;  
} 
//Step5
object house {
  parent "meter_7";
  name "house_7";

  heating_system_type NONE;
  cooling_system_type NONE;
  	
  object ZIPload {
         name "house7_load";
         base_power LOAD7_player.value;
  };

  }

object player {
name LOAD7_player;
file player/Load_profile_7.player;
}

object node {
phases ABC;
name "node_8";
nominal_voltage 7199.558;
}

object transformer { 
     name transformer_8; 
     phases AS;
     from "node_8";
     to "tnode_8";
     configuration "7575A";
}
object triplex_node {
     name "tnode_8";
     nominal_voltage 120;
     phases AS;

}

//Step3
     // Converted from load: 8870.0+2223.0j
object recorder {
     name "Recorder8";
     parent "meter_8";
     interval 1800;
     property measured_real_energy,measured_power,measured_real_power,measured_demand,monthly_bill,price;
     file strom/strom_8.csv;
}
object triplex_line { 
     name "tline_8";  
     phases AS;
     from "tnode_8";
     to "meter_8";
     length 15;
     configuration "4/0Triplex";
}
object triplex_meter {  
     name "meter_8";
     phases AS;
     bill_mode HOURLY;
     power_market Market_1;
     bill_day 1;
     voltage_1 120; 
     voltage_2 120;
     voltage_N 0;    
     nominal_voltage 120;  
} 
//Step5
object house {
  parent "meter_8";
  name "house_8";

  heating_system_type NONE;
  cooling_system_type NONE;

  object ZIPload {
         name "house8_load";
         base_power LOAD8_player.value;
  };

  }

object player {
name LOAD8_player;
file player/Load_profile_8.player;
}

object node {
phases ABC;
name "node_9";
nominal_voltage 7199.558;
}

object transformer { 
     name transformer_9; 
     phases BS;
     from "node_9";
     to "tnode_9";
     configuration "7575B";
}
object triplex_node {
     name "tnode_9";
     nominal_voltage 120;
     phases BS;

}

//Step3
     // Converted from load: 5840.0+1463.6j
object recorder {
     name "Recorder9";
     parent "meter_9";
     interval 1800;
     property measured_real_energy,measured_power,measured_real_power,measured_demand,monthly_bill,price;
     file strom/strom_9.csv;
}
object triplex_line { 
     name "tline_9";  
     phases BS;
     from "tnode_9";
     to "meter_9";
     length 15;
     configuration "4/0Triplex";
}
object triplex_meter {  
     name "meter_9";
     phases BS;
     bill_mode HOURLY;
     power_market Market_1;
     bill_day 1;
     voltage_1 120; 
     voltage_2 120;
     voltage_N 0;    
     nominal_voltage 120;  
} 
//Step5
object house {
  parent "meter_9";
  name "house_9";

  heating_system_type NONE;
  cooling_system_type NONE;
  	
  object ZIPload {
         name "house9_load";
         base_power LOAD9_player.value;
  };

  }

object player {
name LOAD9_player;
file player/Load_profile_9.player;
}

object node {
phases ABC;
name "node_10";
nominal_voltage 7199.558;
}

object transformer { 
     name transformer_10; 
     phases AS;
     from "node_10";
     to "tnode_10";
     configuration "7575A";
}
object triplex_node {
     name "tnode_10";
     nominal_voltage 120;
     phases AS;

}

//Step3
     // Converted from load: 3550.0+889.7j
object recorder {
     name "Recorder10";
     parent "meter_10";
     interval 1800;
     property measured_real_energy,measured_power,measured_real_power,measured_demand,monthly_bill,price;
     file strom/strom_10.csv;
}
object triplex_line { 
     name "tline_10";  
     phases AS;
     from "tnode_10";
     to "meter_10";
     length 15;
     configuration "4/0Triplex";
}
object triplex_meter {  
     name "meter_10";
     phases AS;
     bill_mode HOURLY;
     power_market Market_1;
     bill_day 1;
     voltage_1 120; 
     voltage_2 120;
     voltage_N 0;    
     nominal_voltage 120;  
} 
//Step5
object house {
  parent "meter_10";
  name "house_10";

  heating_system_type NONE;
  cooling_system_type NONE;
  	
  object ZIPload {
         name "house10_load";
         base_power LOAD10_player.value;
  };

  }

object player {
name LOAD10_player;
file player/Load_profile_10.player;
}

object node {
phases ABC;
name "node_11";
nominal_voltage 7199.558;
}

object transformer { 
     name transformer_11; 
     phases CS;
     from "node_11";
     to "tnode_11";
     configuration "7575C";
}
object triplex_node {
     name "tnode_11";
     nominal_voltage 120;
     phases CS;

}

//Step3
     // Converted from load: 10170.0+2548.8j
object recorder {
     name "Recorder11";
     parent "meter_11";
     interval 1800;
     property measured_real_energy,measured_power,measured_real_power,measured_demand,monthly_bill,price;
     file strom/strom_11.csv;
}
object triplex_line { 
     name "tline_11";  
     phases CS;
     from "tnode_11";
     to "meter_11";
     length 15;
     configuration "4/0Triplex";
}
object triplex_meter {  
     name "meter_11";
     phases CS;
     bill_mode HOURLY;
     power_market Market_1;
     bill_day 1;
     voltage_1 120; 
     voltage_2 120;
     voltage_N 0;    
     nominal_voltage 120;  
} 
//Step5
object house {
  parent "meter_11";
  name "house_11";

  heating_system_type NONE;
  cooling_system_type NONE;
  	
  object ZIPload {
         name "house11_load";
         base_power LOAD11_player.value;
  };

  }

object player {
name LOAD11_player;
file player/Load_profile_11.player;
}

object node {
phases ABC;
name "node_12";
nominal_voltage 7199.558;
}

object transformer { 
     name transformer_12; 
     phases CS;
     from "node_12";
     to "tnode_12";
     configuration "7575C";
}
object triplex_node {
     name "tnode_12";
     nominal_voltage 120;
     phases CS;

}

//Step3
     // Converted from load: 4070.0+1020.0j
object recorder {
     name "Recorder12";
     parent "meter_12";
     interval 1800;
     property measured_real_energy,measured_power,measured_real_power,measured_demand,monthly_bill,price;
     file strom/strom_12.csv;
}
object triplex_line { 
     name "tline_12";  
     phases CS;
     from "tnode_12";
     to "meter_12";
     length 15;
     configuration "4/0Triplex";
}
object triplex_meter {  
     name "meter_12";
     phases CS;
     bill_mode HOURLY;
     power_market Market_1;
     bill_day 1;
     voltage_1 120; 
     voltage_2 120;
     voltage_N 0;    
     nominal_voltage 120;  
} 
//Step5
object house {
  parent "meter_12";
  name "house_12";

  heating_system_type NONE;
  cooling_system_type NONE;
  	
  object ZIPload {
         name "house12_load";
         base_power LOAD12_player.value;
  };

  }

object player {
name LOAD12_player;
file player/Load_profile_12.player;
}

object node {
phases ABC;
name "node_13";
nominal_voltage 7199.558;
}

object transformer { 
     name transformer_13; 
     phases CS;
     from "node_13";
     to "tnode_13";
     configuration "7575C";
}
object triplex_node {
     name "tnode_13";
     nominal_voltage 120;
     phases CS;

}

//Step3
     // Converted from load: 6100.0+1528.8j
object recorder {
     name "Recorder13";
     parent "meter_13";
     interval 1800;
     property measured_real_energy,measured_power,measured_real_power,measured_demand,monthly_bill,price;
     file strom/strom_13.csv;
}
object triplex_line { 
     name "tline_13";  
     phases CS;
     from "tnode_13";
     to "meter_13";
     length 15;
     configuration "4/0Triplex";
}
object triplex_meter {  
     name "meter_13";
     phases CS;
     bill_mode HOURLY;
     power_market Market_1;
     bill_day 1;
     voltage_1 120; 
     voltage_2 120;
     voltage_N 0;    
     nominal_voltage 120;  
} 
//Step5
object house {
  parent "meter_13";
  name "house_13";

  heating_system_type NONE;
  cooling_system_type NONE;
  	
  object ZIPload {
         name "house13_load";
         base_power LOAD13_player.value;
  };

  }

object player {
name LOAD13_player;
file player/Load_profile_13.player;
}

object node {
phases ABC;
name "node_14";
nominal_voltage 7199.558;
}

object transformer { 
     name transformer_14; 
     phases CS;
     from "node_14";
     to "tnode_14";
     configuration "7575C";
}
object triplex_node {
     name "tnode_14";
     nominal_voltage 120;
     phases CS;

}

//Step3
     // Converted from load: 6100.0+1528.8j
object recorder {
     name "Recorder14";
     parent "meter_14";
     interval 1800;
     property measured_real_energy,measured_power,measured_real_power,measured_demand,monthly_bill,price;
     file strom/strom_14.csv;
}
object triplex_line { 
     name "tline_14";  
     phases CS;
     from "tnode_14";
     to "meter_14";
     length 15;
     configuration "4/0Triplex";
}
object triplex_meter {  
     name "meter_14";
     phases CS;
     bill_mode HOURLY;
     power_market Market_1;
     bill_day 1;
     voltage_1 120; 
     voltage_2 120;
     voltage_N 0;    
     nominal_voltage 120;  
} 
//Step5
object house {
  parent "meter_14";
  name "house_14";

  heating_system_type NONE;
  cooling_system_type NONE;
  	
  object ZIPload {
         name "house14_load";
         base_power LOAD14_player.value;
  };

  }

object player {
name LOAD14_player;
file player/Load_profile_14.player;
}

object node {
phases ABC;
name "node_15";
nominal_voltage 7199.558;
}

object transformer { 
     name transformer_15; 
     phases CS;
     from "node_15";
     to "tnode_15";
     configuration "7575C";
}
object triplex_node {
     name "tnode_15";
     nominal_voltage 120;
     phases CS;

}

//Step3
     // Converted from load: 4070.0+1020.0j
object recorder {
     name "Recorder15";
     parent "meter_15";
     interval 1800;
     property measured_real_energy,measured_power,measured_real_power,measured_demand,monthly_bill,price;
     file strom/strom_15.csv;
}
object triplex_line { 
     name "tline_15";  
     phases CS;
     from "tnode_15";
     to "meter_15";
     length 15;
     configuration "4/0Triplex";
}
object triplex_meter {  
     name "meter_15";
     phases CS;
     bill_mode HOURLY;
     power_market Market_1;
     bill_day 1;
     voltage_1 120; 
     voltage_2 120;
     voltage_N 0;    
     nominal_voltage 120;  
} 
//Step5
object house {
  parent "meter_15";
  name "house_15";

  heating_system_type NONE;
  cooling_system_type NONE;
  	
  object ZIPload {
         name "house15_load";
         base_power LOAD15_player.value;
  };

  }

object player {
name LOAD15_player;
file player/Load_profile_15.player;
}

object node {
phases ABC;
name "node_16";
nominal_voltage 7199.558;
}

object transformer { 
     name transformer_16; 
     phases CS;
     from "node_16";
     to "tnode_16";
     configuration "7575C";
}
object triplex_node {
     name "tnode_16";
     nominal_voltage 120;
     phases CS;

}

//Step3
     // Converted from load: 6100.0+1528.8j
object recorder {
     name "Recorder16";
     parent "meter_16";
     interval 1800;
     property measured_real_energy,measured_power,measured_real_power,measured_demand,monthly_bill,price;
     file strom/strom_16.csv;
}
object triplex_line { 
     name "tline_16";  
     phases CS;
     from "tnode_16";
     to "meter_16";
     length 15;
     configuration "4/0Triplex";
}
object triplex_meter {  
     name "meter_16";
     phases CS;
     bill_mode HOURLY;
     power_market Market_1;
     bill_day 1;
     voltage_1 120; 
     voltage_2 120;
     voltage_N 0;    
     nominal_voltage 120;  
} 
//Step5
object house {
  parent "meter_16";
  name "house_16";

  heating_system_type NONE;
  cooling_system_type NONE;
  	
  object ZIPload {
         name "house16_load";
         base_power LOAD16_player.value;
  };

  }

object player {
name LOAD16_player;
file player/Load_profile_16.player;
}

object node {
phases ABC;
name "node_17";
nominal_voltage 7199.558;
}

object transformer { 
     name transformer_17; 
     phases CS;
     from "node_17";
     to "tnode_17";
     configuration "7575C";
}
object triplex_node {
     name "tnode_17";
     nominal_voltage 120;
     phases CS;

}

//Step3
     // Converted from load: 10170.0+2548.8j
object recorder {
     name "Recorder17";
     parent "meter_17";
     interval 1800;
     property measured_real_energy,measured_power,measured_real_power,measured_demand,monthly_bill,price;
     file strom/strom_17.csv;
}
object triplex_line { 
     name "tline_17";  
     phases CS;
     from "tnode_17";
     to "meter_17";
     length 15;
     configuration "4/0Triplex";
}
object triplex_meter {  
     name "meter_17";
     phases CS;
     bill_mode HOURLY;
     power_market Market_1;
     bill_day 1;
     voltage_1 120; 
     voltage_2 120;
     voltage_N 0;    
     nominal_voltage 120;  
} 
//Step5
object house {
  parent "meter_17";
  name "house_17";

  heating_system_type NONE;
  cooling_system_type NONE;
  	
  object ZIPload {
         name "house17_load";
         base_power LOAD17_player.value;
  };

  }

object player {
name LOAD17_player;
file player/Load_profile_17.player;
}

object node {
phases ABC;
name "node_18";
nominal_voltage 7199.558;
}

object transformer { 
     name transformer_18; 
     phases CS;
     from "node_18";
     to "tnode_18";
     configuration "7575C";
}
object triplex_node {
     name "tnode_18";
     nominal_voltage 120;
     phases CS;

}

//Step3
     // Converted from load: 10170.0+2548.8j
object recorder {
     name "Recorder18";
     parent "meter_18";
     interval 1800;
     property measured_real_energy,measured_power,measured_real_power,measured_demand,monthly_bill,price;
     file strom/strom_18.csv;
}
object triplex_line { 
     name "tline_18";  
     phases CS;
     from "tnode_18";
     to "meter_18";
     length 15;
     configuration "4/0Triplex";
}
object triplex_meter {  
     name "meter_18";
     phases CS;
     bill_mode HOURLY;
     power_market Market_1;
     bill_day 1;
     voltage_1 120; 
     voltage_2 120;
     voltage_N 0;    
     nominal_voltage 120;  
} 
//Step5
object house {
  parent "meter_18";
  name "house_18";

  heating_system_type NONE;
  cooling_system_type NONE;
  	
  object ZIPload {
         name "house18_load";
         base_power LOAD18_player.value;
  };

  }

object player {
name LOAD18_player;
file player/Load_profile_18.player;
}

object node {
phases ABC;
name "node_19";
nominal_voltage 7199.558;
}

object transformer { 
     name transformer_19; 
     phases CS;
     from "node_19";
     to "tnode_19";
     configuration "7575C";
}
object triplex_node {
     name "tnode_19";
     nominal_voltage 120;
     phases CS;

}

//Step3
     // Converted from load: 4070.0+1020.0j
object recorder {
     name "Recorder19";
     parent "meter_19";
     interval 1800;
     property measured_real_energy,measured_power,measured_real_power,measured_demand,monthly_bill,price;
     file strom/strom_19.csv;
}
object triplex_line { 
     name "tline_19";  
     phases CS;
     from "tnode_19";
     to "meter_19";
     length 15;
     configuration "4/0Triplex";
}
object triplex_meter {  
     name "meter_19";
     phases CS;
     bill_mode HOURLY;
     power_market Market_1;
     bill_day 1;
     voltage_1 120; 
     voltage_2 120;
     voltage_N 0;    
     nominal_voltage 120;  
} 
//Step5
object house {
  parent "meter_19";
  name "house_19";

  heating_system_type NONE;
  cooling_system_type NONE;
  	
  object ZIPload {
         name "house19_load";
         base_power LOAD19_player.value;
  };

  }

object player {
name LOAD19_player;
file player/Load_profile_19.player;
}

object node {
phases ABC;
name "node_20";
nominal_voltage 7199.558;
}

object transformer { 
     name transformer_20; 
     phases CS;
     from "node_20";
     to "tnode_20";
     configuration "7575C";
}
object triplex_node {
     name "tnode_20";
     nominal_voltage 120;
     phases CS;

}

//Step3
     // Converted from load: 10170.0+2548.8j
object recorder {
     name "Recorder20";
     parent "meter_20";
     interval 1800;
     property measured_real_energy,measured_power,measured_real_power,measured_demand,monthly_bill,price;
     file strom/strom_20.csv;
}
object triplex_line { 
     name "tline_20";  
     phases CS;
     from "tnode_20";
     to "meter_20";
     length 15;
     configuration "4/0Triplex";
}
object triplex_meter {  
     name "meter_20";
     phases CS;
     bill_mode HOURLY;
     power_market Market_1;
     bill_day 1;
     voltage_1 120; 
     voltage_2 120;
     voltage_N 0;    
     nominal_voltage 120;  
} 
//Step5
object house {
  parent "meter_20";
  name "house_20";

  heating_system_type NONE;
  cooling_system_type NONE;
  	
  object ZIPload {
         name "house20_load";
         base_power LOAD20_player.value;
  };

  }

object player {
name LOAD20_player;
file player/Load_profile_20.player;
}

object node {
phases ABC;
name "node_21";
nominal_voltage 7199.558;
}

object transformer { 
     name transformer_21; 
     phases CS;
     from "node_21";
     to "tnode_21";
     configuration "7575C";
}
object triplex_node {
     name "tnode_21";
     nominal_voltage 120;
     phases CS;

}

//Step3
     // Converted from load: 15260.0+3824.5j
object recorder {
     name "Recorder21";
     parent "meter_21";
     interval 1800;
     property measured_real_energy,measured_power,measured_real_power,measured_demand,monthly_bill,price;
     file strom/strom_21.csv;
}
object triplex_line { 
     name "tline_21";  
     phases CS;
     from "tnode_21";
     to "meter_21";
     length 15;
     configuration "4/0Triplex";
}
object triplex_meter {  
     name "meter_21";
     phases CS;
     bill_mode HOURLY;
     power_market Market_1;
     bill_day 1;
     voltage_1 120; 
     voltage_2 120;
     voltage_N 0;    
     nominal_voltage 120;  
} 
//Step5
object house {
  parent "meter_21";
  name "house_21";

  heating_system_type NONE;
  cooling_system_type NONE;
  	
  object ZIPload {
         name "house21_load";
         base_power LOAD21_player.value;
  };

  }

object player {
name LOAD21_player;
file player/Load_profile_21.player;
}

object node {
phases ABC;
name "node_22";
nominal_voltage 7199.558;
}

object transformer { 
     name transformer_22; 
     phases CS;
     from "node_22";
     to "tnode_22";
     configuration "7575C";
}
object triplex_node {
     name "tnode_22";
     nominal_voltage 120;
     phases CS;

}

//Step3
     // Converted from load: 6100.0+1528.8j
object recorder {
     name "Recorder22";
     parent "meter_22";
     interval 1800;
     property measured_real_energy,measured_power,measured_real_power,measured_demand,monthly_bill,price;
     file strom/strom_22.csv;
}
object triplex_line { 
     name "tline_22";  
     phases CS;
     from "tnode_22";
     to "meter_22";
     length 15;
     configuration "4/0Triplex";
}
object triplex_meter {  
     name "meter_22";
     phases CS;
     bill_mode HOURLY;
     power_market Market_1;
     bill_day 1;
     voltage_1 120; 
     voltage_2 120;
     voltage_N 0;    
     nominal_voltage 120;  
} 
//Step5
object house {
  parent "meter_22";
  name "house_22";

  heating_system_type NONE;
  cooling_system_type NONE;
  	
  object ZIPload {
         name "house22_load";
         base_power LOAD22_player.value;
  };

  }

object player {
name LOAD22_player;
file player/Load_profile_22.player;
}

object node {
phases ABC;
name "node_23";
nominal_voltage 7199.558;
}

object transformer { 
     name transformer_23; 
     phases CS;
     from "node_23";
     to "tnode_23";
     configuration "7575C";
}
object triplex_node {
     name "tnode_23";
     nominal_voltage 120;
     phases CS;

}

//Step3
     // Converted from load: 6100.0+1528.8j
object recorder {
     name "Recorder23";
     parent "meter_23";
     interval 1800;
     property measured_real_energy,measured_power,measured_real_power,measured_demand,monthly_bill,price;
     file strom/strom_23.csv;
}
object triplex_line { 
     name "tline_23";  
     phases CS;
     from "tnode_23";
     to "meter_23";
     length 15;
     configuration "4/0Triplex";
}
object triplex_meter {  
     name "meter_23";
     phases CS;
     bill_mode HOURLY;
     power_market Market_1;
     bill_day 1;
     voltage_1 120; 
     voltage_2 120;
     voltage_N 0;    
     nominal_voltage 120;  
} 
//Step5
object house {
  parent "meter_23";
  name "house_23";

  heating_system_type NONE;
  cooling_system_type NONE;
  	
  object ZIPload {
         name "house23_load";
         base_power LOAD23_player.value;
  };

  }

object player {
name LOAD23_player;
file player/Load_profile_23.player;
}

object node {
phases ABC;
name "node_24";
nominal_voltage 7199.558;
}

object transformer { 
     name transformer_24; 
     phases CS;
     from "node_24";
     to "tnode_24";
     configuration "7575C";
}
object triplex_node {
     name "tnode_24";
     nominal_voltage 120;
     phases CS;

}

//Step3
     // Converted from load: 4070.0+1020.0j
object recorder {
     name "Recorder24";
     parent "meter_24";
     interval 1800;
     property measured_real_energy,measured_power,measured_real_power,measured_demand,monthly_bill,price;
     file strom/strom_24.csv;
}
object triplex_line { 
     name "tline_24";  
     phases CS;
     from "tnode_24";
     to "meter_24";
     length 15;
     configuration "4/0Triplex";
}
object triplex_meter {  
     name "meter_24";
     phases CS;
     bill_mode HOURLY;
     power_market Market_1;
     bill_day 1;
     voltage_1 120; 
     voltage_2 120;
     voltage_N 0;    
     nominal_voltage 120;  
} 
//Step5
object house {
  parent "meter_24";
  name "house_24";

  heating_system_type NONE;
  cooling_system_type NONE;
  	
  object ZIPload {
         name "house24_load";
         base_power LOAD24_player.value;
  };

  }

object player {
name LOAD24_player;
file player/Load_profile_24.player;
}

object node {
phases ABC;
name "node_25";
nominal_voltage 7199.558;
}

object transformer { 
     name transformer_25; 
     phases CS;
     from "node_25";
     to "tnode_25";
     configuration "7575C";
}
object triplex_node {
     name "tnode_25";
     nominal_voltage 120;
     phases CS;

}

//Step3
     // Converted from load: 4070.0+1020.0j
object recorder {
     name "Recorder25";
     parent "meter_25";
     interval 1800;
     property measured_real_energy,measured_power,measured_real_power,measured_demand,monthly_bill,price;
     file strom/strom_25.csv;
}
object triplex_line { 
     name "tline_25";  
     phases CS;
     from "tnode_25";
     to "meter_25";
     length 15;
     configuration "4/0Triplex";
}
object triplex_meter {  
     name "meter_25";
     phases CS;
     bill_mode HOURLY;
     power_market Market_1;
     bill_day 1;
     voltage_1 120; 
     voltage_2 120;
     voltage_N 0;    
     nominal_voltage 120;  
} 
//Step5
object house {
  parent "meter_25";
  name "house_25";

  heating_system_type NONE;
  cooling_system_type NONE;
  	
  object ZIPload {
         name "house25_load";
         base_power LOAD25_player.value;
  };

  }

object player {
name LOAD25_player;
file player/Load_profile_25.player;
}

object node {
phases ABC;
name "node_26";
nominal_voltage 7199.558;
}

object transformer { 
     name transformer_26; 
     phases CS;
     from "node_26";
     to "tnode_26";
     configuration "7575C";
}
object triplex_node {
     name "tnode_26";
     nominal_voltage 120;
     phases CS;

}

//Step3
     // Converted from load: 4070.0+1020.0j
object recorder {
     name "Recorder26";
     parent "meter_26";
     interval 1800;
     property measured_real_energy,measured_power,measured_real_power,measured_demand,monthly_bill,price;
     file strom/strom_26.csv;
}
object triplex_line { 
     name "tline_26";  
     phases CS;
     from "tnode_26";
     to "meter_26";
     length 15;
     configuration "4/0Triplex";
}
object triplex_meter {  
     name "meter_26";
     phases CS;
     bill_mode HOURLY;
     power_market Market_1;
     bill_day 1;
     voltage_1 120; 
     voltage_2 120;
     voltage_N 0;    
     nominal_voltage 120;  
} 
//Step5
object house {
  parent "meter_26";
  name "house_26";

  heating_system_type NONE;
  cooling_system_type NONE;
  	
  object ZIPload {
         name "house26_load";
         base_power LOAD26_player.value;
  };

  }

object player {
name LOAD26_player;
file player/Load_profile_26.player;
}

object node {
phases ABC;
name "node_27";
nominal_voltage 7199.558;
}

object transformer { 
     name transformer_27; 
     phases CS;
     from "node_27";
     to "tnode_27";
     configuration "7575C";
}
object triplex_node {
     name "tnode_27";
     nominal_voltage 120;
     phases CS;

}

//Step3
     // Converted from load: 10170.0+2548.8j
object recorder {
     name "Recorder27";
     parent "meter_27";
     interval 1800;
     property measured_real_energy,measured_power,measured_real_power,measured_demand,monthly_bill,price;
     file strom/strom_27.csv;
}
object triplex_line { 
     name "tline_27";  
     phases CS;
     from "tnode_27";
     to "meter_27";
     length 15;
     configuration "4/0Triplex";
}
object triplex_meter {  
     name "meter_27";
     phases CS;
     bill_mode HOURLY;
     power_market Market_1;
     bill_day 1;
     voltage_1 120; 
     voltage_2 120;
     voltage_N 0;    
     nominal_voltage 120;  
} 
//Step5
object house {
  parent "meter_27";
  name "house_27";

  heating_system_type NONE;
  cooling_system_type NONE;
  	
  object ZIPload {
         name "house27_load";
         base_power LOAD27_player.value;
  };

  }

object player {
name LOAD27_player;
file player/Load_profile_27.player;
}

object node {
phases ABC;
name "node_28";
nominal_voltage 7199.558;
}

object transformer { 
     name transformer_28; 
     phases CS;
     from "node_28";
     to "tnode_28";
     configuration "7575C";
}
object triplex_node {
     name "tnode_28";
     nominal_voltage 120;
     phases CS;

}

//Step3
     // Converted from load: 6100.0+1528.8j
object recorder {
     name "Recorder28";
     parent "meter_28";
     interval 1800;
     property measured_real_energy,measured_power,measured_real_power,measured_demand,monthly_bill,price;
     file strom/strom_28.csv;
}
object triplex_line { 
     name "tline_28";  
     phases CS;
     from "tnode_28";
     to "meter_28";
     length 15;
     configuration "4/0Triplex";
}
object triplex_meter {  
     name "meter_28";
     phases CS;
     bill_mode HOURLY;
     power_market Market_1;
     bill_day 1;
     voltage_1 120; 
     voltage_2 120;
     voltage_N 0;    
     nominal_voltage 120;  
} 
//Step5
object house {
  parent "meter_28";
  name "house_28";

  heating_system_type NONE;
  cooling_system_type NONE;
  	
  object ZIPload {
         name "house28_load";
         base_power LOAD28_player.value;
  };

  }

object player {
name LOAD28_player;
file player/Load_profile_28.player;
}

object node {
phases ABC;
name "node_29";
nominal_voltage 7199.558;
}

object transformer { 
     name transformer_29; 
     phases CS;
     from "node_29";
     to "tnode_29";
     configuration "7575C";
}
object triplex_node {
     name "tnode_29";
     nominal_voltage 120;
     phases CS;

}

//Step3
     // Converted from load: 4070.0+1020.0j
object recorder {
     name "Recorder29";
     parent "meter_29";
     interval 1800;
     property measured_real_energy,measured_power,measured_real_power,measured_demand,monthly_bill,price;
     file strom/strom_29.csv;
}
object triplex_line { 
     name "tline_29";  
     phases CS;
     from "tnode_29";
     to "meter_29";
     length 15;
     configuration "4/0Triplex";
}
object triplex_meter {  
     name "meter_29";
     phases CS;
     bill_mode HOURLY;
     power_market Market_1;
     bill_day 1;
     voltage_1 120; 
     voltage_2 120;
     voltage_N 0;    
     nominal_voltage 120;  
} 
//Step5
object house {
  parent "meter_29";
  name "house_29";

  heating_system_type NONE;
  cooling_system_type NONE;
  	
  object ZIPload {
         name "house29_load";
         base_power LOAD29_player.value;
  };

  }

object player {
name LOAD29_player;
file player/Load_profile_29.player;
}

object node {
phases ABC;
name "node_30";
nominal_voltage 7199.558;
}

object transformer { 
     name transformer_30; 
     phases CS;
     from "node_30";
     to "tnode_30";
     configuration "7575C";
}
object triplex_node {
     name "tnode_30";
     nominal_voltage 120;
     phases CS;

}

//Step3
     // Converted from load: 10170.0+2548.8j
object recorder {
     name "Recorder30";
     parent "meter_30";
     interval 1800;
     property measured_real_energy,measured_power,measured_real_power,measured_demand,monthly_bill,price;
     file strom/strom_30.csv;
}
object triplex_line { 
     name "tline_30";  
     phases CS;
     from "tnode_30";
     to "meter_30";
     length 15;
     configuration "4/0Triplex";
}
object triplex_meter {  
     name "meter_30";
     phases CS;
     bill_mode HOURLY;
     power_market Market_1;
     bill_day 1;
     voltage_1 120; 
     voltage_2 120;
     voltage_N 0;    
     nominal_voltage 120;  
} 
//Step5
object house {
  parent "meter_30";
  name "house_30";

  heating_system_type NONE;
  cooling_system_type NONE;
  	
  object ZIPload {
         name "house30_load";
         base_power LOAD30_player.value;
  };

  }

object player {
name LOAD30_player;
file player/Load_profile_30.player;
}

object node {
phases ABC;
name "node_31";
nominal_voltage 7199.558;
}

object transformer { 
     name transformer_31; 
     phases AS;
     from "node_31";
     to "tnode_31";
     configuration "7575A";
}
object triplex_node {
     name "tnode_31";
     nominal_voltage 120;
     phases AS;

}

//Step3
     // Converted from load: 8870.0+2223.0j
object recorder {
     name "Recorder31";
     parent "meter_31";
     interval 1800;
     property measured_real_energy,measured_power,measured_real_power,measured_demand,monthly_bill,price;
     file strom/strom_31.csv;
}
object triplex_line { 
     name "tline_31";  
     phases AS;
     from "tnode_31";
     to "meter_31";
     length 15;
     configuration "4/0Triplex";
}
object triplex_meter {  
     name "meter_31";
     phases AS;
     bill_mode HOURLY;
     power_market Market_1;
     bill_day 1;
     voltage_1 120; 
     voltage_2 120;
     voltage_N 0;    
     nominal_voltage 120;  
} 
//Step5
object house {
  parent "meter_31";
  name "house_31";

  heating_system_type NONE;
  cooling_system_type NONE;
  	
  object ZIPload {
         name "house31_load";
         base_power LOAD31_player.value;
  };

  }

object player {
name LOAD31_player;
file player/Load_profile_31.player;
}

object node {
phases ABC;
name "node_32";
nominal_voltage 7199.558;
}

object transformer { 
     name transformer_32; 
     phases AS;
     from "node_32";
     to "tnode_32";
     configuration "7575A";
}
object triplex_node {
     name "tnode_32";
     nominal_voltage 120;
     phases AS;

}

//Step3
     // Converted from load: 8870.0+2223.0j
object recorder {
     name "Recorder32";
     parent "meter_32";
     interval 1800;
     property measured_real_energy,measured_power,measured_real_power,measured_demand,monthly_bill,price;
     file strom/strom_32.csv;
}
object triplex_line { 
     name "tline_32";  
     phases AS;
     from "tnode_32";
     to "meter_32";
     length 15;
     configuration "4/0Triplex";
}
object triplex_meter {  
     name "meter_32";
     phases AS;
     bill_mode HOURLY;
     power_market Market_1;
     bill_day 1;
     voltage_1 120; 
     voltage_2 120;
     voltage_N 0;    
     nominal_voltage 120;  
} 
//Step5
object house {
  parent "meter_32";
  name "house_32";

  heating_system_type NONE;
  cooling_system_type NONE;
  	
  object ZIPload {
         name "house32_load";
         base_power LOAD32_player.value;
  };

  }

object player {
name LOAD32_player;
file player/Load_profile_32.player;
}

object node {
phases ABC;
name "node_33";
nominal_voltage 7199.558;
}

object transformer { 
     name transformer_33; 
     phases AS;
     from "node_33";
     to "tnode_33";
     configuration "7575A";
}
object triplex_node {
     name "tnode_33";
     nominal_voltage 120;
     phases AS;

}

//Step3
     // Converted from load: 8870.0+2223.0j
object recorder {
     name "Recorder33";
     parent "meter_33";
     interval 1800;
     property measured_real_energy,measured_power,measured_real_power,measured_demand,monthly_bill,price;
     file strom/strom_33.csv;
}
object triplex_line { 
     name "tline_33";  
     phases AS;
     from "tnode_33";
     to "meter_33";
     length 15;
     configuration "4/0Triplex";
}
object triplex_meter {  
     name "meter_33";
     phases AS;
     bill_mode HOURLY;
     power_market Market_1;
     bill_day 1;
     voltage_1 120; 
     voltage_2 120;
     voltage_N 0;    
     nominal_voltage 120;  
} 
//Step5
object house {
  parent "meter_33";
  name "house_33";

  heating_system_type NONE;
  cooling_system_type NONE;
  	
  object ZIPload {
         name "house33_load";
         base_power LOAD33_player.value;
  };

  }

object player {
name LOAD33_player;
file player/Load_profile_33.player;
}

object node {
phases ABC;
name "node_34";
nominal_voltage 7199.558;
}

object transformer { 
     name transformer_34; 
     phases AS;
     from "node_34";
     to "tnode_34";
     configuration "7575A";
}
object triplex_node {
     name "tnode_34";
     nominal_voltage 120;
     phases AS;

}

//Step3
     // Converted from load: 8870.0+2223.0j
object recorder {
     name "Recorder34";
     parent "meter_34";
     interval 1800;
     property measured_real_energy,measured_power,measured_real_power,measured_demand,monthly_bill,price;
     file strom/strom_34.csv;
}
object triplex_line { 
     name "tline_34";  
     phases AS;
     from "tnode_34";
     to "meter_34";
     length 15;
     configuration "4/0Triplex";
}
object triplex_meter {  
     name "meter_34";
     phases AS;
     bill_mode HOURLY;
     power_market Market_1;
     bill_day 1;
     voltage_1 120; 
     voltage_2 120;
     voltage_N 0;    
     nominal_voltage 120;  
} 
//Step5
object house {
  parent "meter_34";
  name "house_34";

  heating_system_type NONE;
  cooling_system_type NONE;
  	
  object ZIPload {
         name "house34_load";
         base_power LOAD34_player.value;
  };

  }

object player {
name LOAD34_player;
file player/Load_profile_34.player;
}

object node {
phases ABC;
name "node_35";
nominal_voltage 7199.558;
}

object transformer { 
     name transformer_35; 
     phases AS;
     from "node_35";
     to "tnode_35";
     configuration "7575A";
}
object triplex_node {
     name "tnode_35";
     nominal_voltage 120;
     phases AS;

}

//Step3
     // Converted from load: 8870.0+2223.0j
object recorder {
     name "Recorder35";
     parent "meter_35";
     interval 1800;
     property measured_real_energy,measured_power,measured_real_power,measured_demand,monthly_bill,price;
     file strom/strom_35.csv;
}
object triplex_line { 
     name "tline_35";  
     phases AS;
     from "tnode_35";
     to "meter_35";
     length 15;
     configuration "4/0Triplex";
}
object triplex_meter {  
     name "meter_35";
     phases AS;
     bill_mode HOURLY;
     power_market Market_1;
     bill_day 1;
     voltage_1 120; 
     voltage_2 120;
     voltage_N 0;    
     nominal_voltage 120;  
} 
//Step5
object house {
  parent "meter_35";
  name "house_35";

  heating_system_type NONE;
  cooling_system_type NONE;
  	
  object ZIPload {
         name "house35_load";
         base_power LOAD35_player.value;
  };

  }

object player {
name LOAD35_player;
file player/Load_profile_35.player;
}

object node {
parent "node_37";
phases ABC;
name "node_36";
nominal_voltage 7199.558;
}

object transformer { 
     name transformer_36; 
     phases AS;
     from "node_36";
     to "tnode_36";
     configuration "7575A";
}
object triplex_node {
     name "tnode_36";
     nominal_voltage 120;
     phases AS;

}

//Step3
     // Converted from load: 8870.0+2223.0j
object recorder {
     name "Recorder36";
     parent "meter_36";
     interval 1800;
     property measured_real_energy,measured_power,measured_real_power,measured_demand,monthly_bill,price;
     file strom/strom_36.csv;
}
object triplex_line { 
     name "tline_36";  
     phases AS;
     from "tnode_36";
     to "meter_36";
     length 15;
     configuration "4/0Triplex";
}
object triplex_meter {  
     name "meter_36";
     groupid building1;
     phases AS;
     bill_mode HOURLY;
     power_market Market_1;
     bill_day 1;
     voltage_1 120; 
     voltage_2 120;
     voltage_N 0;    
     nominal_voltage 120;  
} 
//Step5
object house {
  parent "meter_36";
  name "house_36";

  heating_system_type NONE;
  cooling_system_type NONE;
  	
  object ZIPload {
         name "house36_load";
         base_power LOAD36_player.value;
  };

  }

object player {
name LOAD36_player;
file player/Load_profile_36.player;
}

object node {
phases ABC;
name "node_37";
nominal_voltage 7199.558;
}

object transformer { 
     name transformer_37; 
     phases AS;
     from "node_37";
     to "tnode_37";
     configuration "7575A";
}
object triplex_node {
     name "tnode_37";
     nominal_voltage 120;
     phases AS;

}

//Step3
     // Converted from load: 8870.0+2223.0j
object recorder {
     name "Recorder37";
     parent "meter_37";
     interval 1800;
     property measured_real_energy,measured_power,measured_real_power,measured_demand,monthly_bill,price;
     file strom/strom_37.csv;
}
object triplex_line { 
     name "tline_37";  
     phases AS;
     from "tnode_37";
     to "meter_37";
     length 15;
     configuration "4/0Triplex";
}
object triplex_meter {  
     name "meter_37";
     groupid building1; 
     phases AS;
     bill_mode HOURLY;
     power_market Market_1;
     bill_day 1;
     voltage_1 120; 
     voltage_2 120;
     voltage_N 0;    
     nominal_voltage 120;  
} 
//Step5
object house {
  parent "meter_37";
  name "house_37";

  heating_system_type NONE;
  cooling_system_type NONE;
  	
  object ZIPload {
         name "house37_load";
         base_power LOAD37_player.value;
  };

  }

object player {
name LOAD37_player;
file player/Load_profile_37.player;
}

object node {
parent "node_37";
phases ABC;
name "node_38";
nominal_voltage 7199.558;
}

object transformer { 
     name transformer_38; 
     phases AS;
     from "node_38";
     to "tnode_38";
     configuration "7575A";
}
object triplex_node {
     name "tnode_38";
     nominal_voltage 120;
     phases AS;

}

//Step3
     // Converted from load: 13300.0+3333.3j
object recorder {
     name "Recorder38";
     parent "meter_38";
     interval 1800;

     property measured_real_energy,measured_power,measured_real_power,measured_demand,monthly_bill,price;
     file strom/strom_38.csv;
}
object triplex_line { 
     name "tline_38";  
     phases AS;
     from "tnode_38";
     to "meter_38";
     length 15;
     configuration "4/0Triplex";
}
object triplex_meter {  
     name "meter_38";
     phases AS;
     bill_mode HOURLY;
     power_market Market_1;
     bill_day 1;
     groupid building1; 
     voltage_1 120; 
     voltage_2 120;
     voltage_N 0;    
     nominal_voltage 120;  
} 
//Step5
object house {
  parent "meter_38";
  name "house_38";
  heating_system_type NONE;
  cooling_system_type NONE;
  	
  object ZIPload {
         name "house38_load";
         base_power LOAD38_player.value;
  };

  }

object player {
name LOAD38_player;
file player/Load_profile_38.player;
}

object node {
phases ABC;
name "node_39";
nominal_voltage 7199.558;
}

object transformer { 
     name transformer_39; 
     phases AS;
     from "node_39";
     to "tnode_39";
     configuration "7575A";
}
object triplex_node {
     name "tnode_39";
     nominal_voltage 120;
     phases AS;

}

//Step3
     // Converted from load: 5320.0+1333.3j
...